

.PROBE TRAN
+    V(in)
+    V(out)
.TRAN 200e-15 2e-9 START=0.0

.TEMP 25.0
.OPTION
+    ARTIST=2
+    INGOLD=2
+    PARHIER=LOCAL
+    PSF=2
